Circuit: * G:\My Drive\2020-2021\Spring\EE 308\Labs\Lab 1\ltspice\amplifier.asc

WARNING: Less than two connections to node NC_01.  This node is used by V1.
Direct Newton iteration for .op point succeeded.

Date: Thu Apr 29 21:11:25 2021
Total elapsed time: 0.359 seconds.

tnom = 27
temp = 27
method = modified trap
totiter = 4069
traniter = 4063
tranpoints = 2027
accept = 2025
rejected = 2
matrix size = 43
fillins = 56
solver = Normal
Matrix Compiler1: 5.77 KB object code size  1.0/0.6/[0.3]
Matrix Compiler2: 4.56 KB object code size  0.4/0.6/[0.3]

