Circuit: * G:\My Drive\2020-2021\Spring\EE 308\Labs\ee308\lab1\ltspice\amplifier.asc

WARNING: Less than two connections to node NC_01.  This node is used by V4.
Direct Newton iteration for .op point succeeded.

Date: Fri Apr 30 20:23:54 2021
Total elapsed time: 100.057 seconds.

tnom = 27
temp = 27
method = modified trap
totiter = 2000178
traniter = 2000172
tranpoints = 1000087
accept = 1000068
rejected = 19
matrix size = 43
fillins = 56
solver = Normal
Matrix Compiler1: 5.75 KB object code size  1.6/0.9/[0.3]
Matrix Compiler2: 4.56 KB object code size  0.5/0.8/[0.3]

