Circuit: * G:\My Drive\2020-2021\Spring\EE 308\Labs\ee308\lab1\ltspice\Draft2.asc

Direct Newton iteration for .op point succeeded.

Date: Wed May 05 12:55:56 2021
Total elapsed time: 0.294 seconds.

tnom = 27
temp = 27
method = modified trap
totiter = 10038
traniter = 10034
tranpoints = 5018
accept = 5018
rejected = 0
matrix size = 5
fillins = 0
solver = Normal
Matrix Compiler1: 114 bytes object code size  0.0/0.0/[0.0]
Matrix Compiler2:      26 opcodes  0.0/[0.0]/0.1

