Circuit: * G:\My Drive\2020-2021\Spring\EE 308\Labs\ee308\lab3\ltspice\jfet_buffer.asc

WARNING: Node -12V is floating.

WARNING: Less than two connections to node +12V.  This node is used by R2.
.OP point found by inspection.

Date: Mon May 31 15:47:56 2021
Total elapsed time: 0.305 seconds.

tnom = 27
temp = 27
method = trap
totiter = 0
traniter = 0
tranpoints = 0
accept = 0
rejected = 0
matrix size = 11
fillins = 2
solver = Normal

