Circuit: * G:\My Drive\2020-2021\Spring\EE 308\Labs\ee308\lab3\ltspice\switched_current_source.asc

Direct Newton iteration failed to find .op point.  (Use ".option noopiter" to skip.)
Starting Gmin stepping
Gmin = 10
Gmin = 1.07374
vernier = 0.5
vernier = 0.25
vernier = 0.125
vernier = 0.0625
Gmin = 1.08884
vernier = 0.03125
vernier = 0.015625
Gmin = 1.03122
vernier = 0.0078125
vernier = 0.0104167
vernier = 0.00520833
Gmin = 1.01988
vernier = 0.00260417
vernier = 0.00347222
Gmin = 1.01305
vernier = 0.00173611
vernier = 0.00231481
vernier = 0.00115741
Gmin = 1.01085
vernier = 0.00154321
vernier = 0.000771604
Gmin = 1.00871
vernier = 0.00102881
vernier = 0.000514403
Gmin = 1.00715
vernier = 0.00068587
vernier = 0.000514403
Gmin = 1.0059
vernier = 0.00068587
vernier = 0.000514402
Gmin = 0
Gmin stepping failed

Starting source stepping with srcstepmethod=0
Source Step = 3.0303%
Source Step = 33.3333%
Source Step = 63.6364%
Source Step = 81.8655%
Source Step = 82.339%
Source Step = 82.8125%
Source Step = 83.286%
Source Step = 83.7595%
Source Step = 84.233%
vernier = 0.0234375
Source Step = 84.9432%
Source Step = 85.6534%
Source Step = 86.3636%
Source Step = 87.0739%
Source Step = 87.7841%
vernier = 0.0351563
Source Step = 88.8139%
Source Step = 89.8793%
Source Step = 90.9446%
Source Step = 92.0099%
Source Step = 93.0753%
vernier = 0.0527344
Source Step = 94.5668%
Source Step = 96.1648%
Source Step = 97.7628%
Source Step = 99.3608%
Source stepping succeeded in finding the operating point.


Date: Tue May 25 18:49:57 2021
Total elapsed time: 1.145 seconds.

tnom = 27
temp = 27
method = modified trap
totiter = 17833
traniter = 10409
tranpoints = 5160
accept = 5126
rejected = 34
matrix size = 47
fillins = 62
solver = Normal
Matrix Compiler1: 4.65 KB object code size  0.9/0.5/[0.3]
Matrix Compiler2: 5.49 KB object code size  0.6/0.9/[0.3]

