Circuit: * G:\My Drive\2020-2021\Spring\EE 308\Labs\ee308\lab3\ltspice\triangle_wave_gen_cmi.asc

WARNING: Node NC_01 is floating.

WARNING: Less than two connections to node SQUARE_IN.  This node is used by V3.
WARNING: Less than two connections to node NC_01.  This node is used by I1.
Direct Newton iteration failed to find .op point.  (Use ".option noopiter" to skip.)
Starting Gmin stepping
Gmin = 10
Gmin = 1.07374
vernier = 0.5
vernier = 0.25
vernier = 0.125
vernier = 0.0625
Gmin = 1.08884
vernier = 0.03125
vernier = 0.015625
Gmin = 1.03122
vernier = 0.0078125
vernier = 0.0104167
vernier = 0.00520833
Gmin = 1.01988
vernier = 0.00260417
vernier = 0.00347222
Gmin = 1.01305
vernier = 0.00173611
vernier = 0.00231481
vernier = 0.00115741
Gmin = 1.01085
vernier = 0.00154321
vernier = 0.000771604
Gmin = 1.00871
vernier = 0.00102881
vernier = 0.000514403
Gmin = 1.00715
vernier = 0.00068587
vernier = 0.000514403
Gmin = 1.0059
vernier = 0.00068587
vernier = 0.000514402
Gmin = 0
Gmin stepping failed

Starting source stepping with srcstepmethod=0
Source Step = 3.0303%
Source Step = 33.3333%
Source Step = 63.6364%
Source Step = 88.6364%
vernier = 0.0625
Source Step = 89.7727%
Source Step = 91.6667%
Source Step = 93.5606%
Source Step = 95.4545%
Source Step = 97.3485%
vernier = 0.09375
Source Step = 100%
Source stepping succeeded in finding the operating point.


Date: Mon May 31 03:29:22 2021
Total elapsed time: 3.232 seconds.

tnom = 27
temp = 27
method = modified trap
totiter = 43561
traniter = 36509
tranpoints = 12857
accept = 10575
rejected = 2282
matrix size = 123
fillins = 179
solver = Normal
Thread vector: 16.4/8.1[3] 4.3/4.3[1] 4.7/5.7[1] 0.6/3.8[1]  2592/500
Matrix Compiler1: 14.81 KB object code size  5.2/3.0/[0.7]
Matrix Compiler2: 14.27 KB object code size  2.0/2.0/[1.3]

