Circuit: * G:\My Drive\2020-2021\Spring\EE 308\Labs\ee308\lab3\ltspice\triangle_wave_gen_cm2.asc

WARNING: Less than two connections to node NC_01.  This node is used by C1.
WARNING: Less than two connections to node SQUARE_IN.  This node is used by V3.
Direct Newton iteration failed to find .op point.  (Use ".option noopiter" to skip.)
Starting Gmin stepping
Gmin = 10
Gmin = 1.07374
vernier = 0.5
vernier = 0.25
vernier = 0.125
vernier = 0.0625
Gmin = 1.08884
vernier = 0.03125
vernier = 0.015625
Gmin = 1.03122
vernier = 0.0078125
vernier = 0.0104167
vernier = 0.00520833
Gmin = 1.01988
vernier = 0.00260417
vernier = 0.00347222
Gmin = 1.01305
vernier = 0.00173611
vernier = 0.00231481
vernier = 0.00115741
Gmin = 1.01085
vernier = 0.00154321
vernier = 0.000771604
Gmin = 1.00871
vernier = 0.00102881
vernier = 0.000514403
Gmin = 1.00715
vernier = 0.00068587
vernier = 0.000514403
Gmin = 1.0059
vernier = 0.00068587
vernier = 0.000514402
Gmin = 0
Gmin stepping failed

Starting source stepping with srcstepmethod=0
Source Step = 3.0303%
Source Step = 33.3333%
Source Step = 63.6364%
Source Step = 88.6364%
vernier = 0.0625
Source Step = 88.3049%
Source Step = 88.7784%
Source Step = 89.2519%
Source Step = 89.7254%
Source Step = 90.1989%
vernier = 0.0234375
Source Step = 90.8617%
Source Step = 91.572%
Source Step = 92.2822%
Source Step = 92.9924%
Source Step = 93.7027%
vernier = 0.0351563
Source Step = 94.6615%
Source Step = 95.7268%
Source Step = 96.7921%
Source Step = 97.8575%
Source Step = 98.9228%
vernier = 0.0527344
Source stepping succeeded in finding the operating point.


Date: Mon May 31 19:48:11 2021
Total elapsed time: 2.872 seconds.

tnom = 27
temp = 27
method = modified trap
totiter = 34144
traniter = 26619
tranpoints = 10465
accept = 8872
rejected = 1593
matrix size = 111
fillins = 214
solver = Normal
Thread vector: 13.0/10.7[2] 3.6/3.5[1] 3.7/6.2[1] 0.5/2.0[1]  2592/500
Matrix Compiler1: 15.85 KB object code size  4.3/2.7/[0.8]
Matrix Compiler2: 13.70 KB object code size  1.7/1.9/[0.8]

