Circuit: * G:\My Drive\2020-2021\Spring\EE 308\Labs\ee308\lab3\ltspice\triangle_wave_gen.asc

D23: both pins shorted together -- ignoring.
WARNING: Less than two connections to node SQUARE_IN.  This node is used by V3.
Direct Newton iteration failed to find .op point.  (Use ".option noopiter" to skip.)
Starting Gmin stepping
Gmin = 10
Gmin = 1.07374
vernier = 0.5
vernier = 0.25
vernier = 0.125
vernier = 0.0625
Gmin = 1.08884
vernier = 0.03125
vernier = 0.015625
Gmin = 1.03122
vernier = 0.0078125
vernier = 0.0104167
vernier = 0.00520833
Gmin = 1.01988
vernier = 0.00260417
vernier = 0.00347222
Gmin = 1.01305
vernier = 0.00173611
vernier = 0.00231481
vernier = 0.00115741
Gmin = 1.01085
vernier = 0.00154321
vernier = 0.000771604
Gmin = 1.00871
vernier = 0.00102881
vernier = 0.000514403
Gmin = 1.00715
vernier = 0.00068587
vernier = 0.000514403
Gmin = 1.0059
vernier = 0.00068587
vernier = 0.000514402
Gmin = 0
Gmin stepping failed

Starting source stepping with srcstepmethod=0
Source Step = 3.0303%
Source Step = 12.1212%
Source Step = 14.3939%
Source Step = 16.2879%
Source Step = 18.1818%
Source Step = 20.0758%
Source Step = 21.9697%
vernier = 0.09375
Source Step = 24.5265%
Source Step = 27.3674%
Source Step = 30.2083%
Source Step = 33.0492%
Source Step = 35.8902%
vernier = 0.140625
Source Step = 39.5833%
Source Step = 43.8447%
Source Step = 48.1061%
Source Step = 52.3674%
Source Step = 56.6288%
vernier = 0.210938
Source Step = 61.9555%
Source Step = 68.3475%
Source Step = 74.7396%
Source Step = 81.1316%
Source Step = 87.5237%
vernier = 0.316406
Source Step = 95.1941%
Source stepping succeeded in finding the operating point.

Changing Tseed to 4.54545e-011

Date: Wed Jun 02 01:16:08 2021
Total elapsed time: 7.129 seconds.

tnom = 27
temp = 27
method = modified trap
totiter = 129076
traniter = 121629
tranpoints = 45531
accept = 32852
rejected = 12678
matrix size = 131
fillins = 211
solver = Normal
Thread vector: 22.2/12.0[3] 4.9/7.5[1] 3.4/5.2[1] 0.8/2.3[1]  2592/500
Matrix Compiler1: 16.70 KB object code size  4.2/2.3/[0.8]
Matrix Compiler2: 16.08 KB object code size  2.9/2.6/[0.9]

