Circuit: * G:\My Drive\2020-2021\Spring\EE 308\Labs\ee308\lab3\ltspice\triangle_wave_gen_cm3.asc

WARNING: Less than two connections to node NC_01.  This node is used by C1.
WARNING: Less than two connections to node SQUARE_IN.  This node is used by V3.
Per .tran options, skipping operating point for transient analysis.

Date: Mon May 31 18:06:53 2021
Total elapsed time: 1.086 seconds.

tnom = 27
temp = 27
method = modified trap
totiter = 18538
traniter = 18538
tranpoints = 7965
accept = 7141
rejected = 824
matrix size = 114
fillins = 101
solver = Normal
Thread vector: 16.7/12.4[2] 6.1/4.9[2] 2.9/6.7[1] 0.6/2.0[1]  2592/500
Matrix Compiler1: 12.94 KB object code size  2.8/2.1/[0.7]
Matrix Compiler2: 12.16 KB object code size  1.1/1.6/[0.6]

