Circuit: * G:\My Drive\2020-2021\Spring\EE 308\Labs\ee308\lab2\ltspice\hysteretic_switch.asc

WARNING: Node N009 is floating.

WARNING: Less than two connections to node N009.  This node is used by C1.
Direct Newton iteration for .op point succeeded.

Date: Thu May 06 14:34:12 2021
Total elapsed time: 0.411 seconds.

tnom = 27
temp = 27
method = modified trap
totiter = 14357
traniter = 14327
tranpoints = 6422
accept = 6014
rejected = 408
matrix size = 59
fillins = 38
solver = Normal
Matrix Compiler1: 5.57 KB object code size  1.5/0.6/[0.3]
Matrix Compiler2: 5.45 KB object code size  0.5/0.7/[0.3]

