Circuit: * G:\My Drive\2020-2021\Spring\EE 308\Labs\ee308\lab2\ltspice\hysteretic_switch.asc

WARNING: Node N009 is floating.

WARNING: Less than two connections to node NC_01.  This node is used by R2.
WARNING: Less than two connections to node N009.  This node is used by C1.
Direct Newton iteration for .op point succeeded.

Date: Sat May 08 16:14:16 2021
Total elapsed time: 0.459 seconds.

tnom = 27
temp = 27
method = modified trap
totiter = 14820
traniter = 14774
tranpoints = 6688
accept = 6167
rejected = 521
matrix size = 60
fillins = 38
solver = Normal
Matrix Compiler1: 5.58 KB object code size  1.2/0.6/[0.3]
Matrix Compiler2: 5.49 KB object code size  0.5/0.8/[0.3]

